<routes>
	<vType id="car" vClass="passenger" length="5" sigma="1.0" accel="3.5" decel="2.2" maxspeed="10"/>
	<vType id="bus" vclass="bus" length="12" sigma="1.0" accel="3.2" decel="2.2" maxspeed="10" guishape="bus" color="blue"/>

	<flow id ="carflow1" type="car" beg="10" end="0" number="5" from="-E3" to="-E2"/>
	<flow id ="carflow2" type="car" beg="20" end="0" number="5" from="-E4" to="-E2"/>
	<flow id ="carflow3" type="car" beg="5" end="0" number="3" from="E2" to="E4"/>
		
	<route id="route_0" edges="E2 E3"/>
	<vehicle id="0" type="bus" route="route_0" depart="0"/>
	
	<route id="route_1" edges="E2 E4"/>
	<vehicle id="1" type="bus" route="route_1" depart="30"/>
	
</routes>
