<?xml version="1.0" encoding="UTF-8"?>

<!-- generated on 2024-01-02 17:09:32 by Eclipse SUMO netedit Version v1_19_0+0542-079423a4382
<configuration xmlns:xsi="http://www.w3.org/2001/XMLSchema-instance" xsi:noNamespaceSchemaLocation="http://sumo.dlr.de/xsd/neteditConfiguration.xsd">

    <input>
        <sumo-net-file value="/home/aspireatlas/sumo/bin/busstop.net.xml"/>
    </input>

    <output>
        <output-file value="/home/aspireatlas/sumo/bin/busstop.net.xml"/>
    </output>

    <processing>
        <geometry.min-radius.fix.railways value="false"/>
        <geometry.max-grade.fix value="false"/>
        <offset.disable-normalization value="true"/>
        <lefthand value="0"/>
    </processing>

    <junctions>
        <no-turnarounds value="true"/>
        <junctions.corner-detail value="5"/>
        <junctions.limit-turn-speed value="5.50"/>
        <rectangular-lane-cut value="0"/>
    </junctions>

    <pedestrian>
        <walkingareas value="0"/>
    </pedestrian>

</configuration>
-->

<net version="1.16" junctionCornerDetail="5" limitTurnSpeed="5.50" xmlns:xsi="http://www.w3.org/2001/XMLSchema-instance" xsi:noNamespaceSchemaLocation="http://sumo.dlr.de/xsd/net_file.xsd">

    <location netOffset="0.00,0.00" convBoundary="-15.87,38.06,110.53,85.96" origBoundary="-10000000000.00,-10000000000.00,10000000000.00,10000000000.00" projParameter="!"/>

    <edge id=":J6_0" function="internal">
        <lane id=":J6_0_0" index="0" speed="13.89" length="24.89" shape="78.65,78.47 73.07,73.64 68.98,69.90 64.75,67.50 58.70,66.67"/>
        <lane id=":J6_0_1" index="1" speed="13.89" length="24.89" shape="80.60,75.93 74.37,70.74 69.64,66.80 64.92,64.31 58.68,63.47"/>
    </edge>
    <edge id=":J6_2" function="internal">
        <lane id=":J6_2_0" index="0" speed="9.45" length="26.17" shape="82.55,73.40 76.77,67.70 74.76,62.39 76.51,57.47 82.03,52.93"/>
    </edge>
    <edge id=":J6_3" function="internal">
        <lane id=":J6_3_0" index="0" speed="5.83" length="9.13" shape="86.89,61.21 84.80,62.86 84.03,64.60 84.58,66.42 86.45,68.32"/>
    </edge>
    <edge id=":J6_4" function="internal">
        <lane id=":J6_4_0" index="0" speed="13.89" length="27.42" shape="85.27,58.45 77.47,62.69 71.24,65.18 65.39,66.35 58.70,66.67"/>
        <lane id=":J6_4_1" index="1" speed="13.89" length="27.42" shape="83.65,55.69 76.40,59.69 70.69,62.04 65.22,63.16 58.68,63.47"/>
    </edge>
    <edge id=":J6_6" function="internal">
        <lane id=":J6_6_0" index="0" speed="13.89" length="24.04" shape="58.64,57.07 65.05,56.68 70.04,55.50 74.78,53.38 80.41,50.17"/>
        <lane id=":J6_6_1" index="1" speed="13.89" length="24.04" shape="58.66,60.27 65.32,59.81 70.86,58.48 76.15,56.20 82.03,52.93"/>
    </edge>
    <edge id=":J6_8" function="internal">
        <lane id=":J6_8_0" index="0" speed="13.89" length="4.58" shape="58.66,60.27 63.22,60.77"/>
    </edge>
    <edge id=":J6_9" function="internal">
        <lane id=":J6_9_0" index="0" speed="13.89" length="23.87" shape="63.22,60.77 65.80,61.04 72.36,63.26 78.52,66.62 84.50,70.86"/>
    </edge>

    <edge id="-E2" from="J6" to="J5" priority="-1" length="100.00">
        <lane id="-E2_0" index="0" speed="13.89" length="100.00" shape="58.70,66.67 -15.84,67.16"/>
        <lane id="-E2_1" index="1" speed="13.89" length="100.00" shape="58.68,63.47 -15.86,63.96"/>
    </edge>
    <edge id="-E3" from="J7" to="J6" priority="-1" length="40.00">
        <lane id="-E3_0" index="0" speed="13.89" length="40.00" shape="96.67,92.30 78.65,78.47"/>
        <lane id="-E3_1" index="1" speed="13.89" length="40.00" shape="98.62,89.77 80.60,75.93"/>
        <lane id="-E3_2" index="2" speed="13.89" length="40.00" shape="100.57,87.23 82.55,73.40"/>
    </edge>
    <edge id="-E4" from="J8" to="J6" priority="-1">
        <lane id="-E4_0" index="0" speed="13.89" length="32.10" shape="114.58,44.96 86.89,61.21"/>
        <lane id="-E4_1" index="1" speed="13.89" length="32.10" shape="112.96,42.20 85.27,58.45"/>
        <lane id="-E4_2" index="2" speed="13.89" length="32.10" shape="111.34,39.44 83.65,55.69"/>
    </edge>
    <edge id="E2" from="J5" to="J6" priority="-1" length="100.00">
        <lane id="E2_0" index="0" speed="13.89" length="100.00" shape="-15.90,57.56 58.64,57.07"/>
        <lane id="E2_1" index="1" speed="13.89" length="100.00" shape="-15.88,60.76 58.66,60.27"/>
    </edge>
    <edge id="E3" from="J6" to="J7" priority="-1" length="40.00">
        <lane id="E3_0" index="0" speed="13.89" length="40.00" shape="86.45,68.32 104.46,82.15"/>
        <lane id="E3_1" index="1" speed="13.89" length="40.00" shape="84.50,70.86 102.51,84.69"/>
    </edge>
    <edge id="E4" from="J6" to="J8" priority="-1">
        <lane id="E4_0" index="0" speed="13.89" length="32.10" shape="80.41,50.17 108.10,33.92"/>
        <lane id="E4_1" index="1" speed="13.89" length="32.10" shape="82.03,52.93 109.72,36.68"/>
    </edge>

    <tlLogic id="J6" type="static" programID="0" offset="0">
        <phase duration="42" state="rrrGGGGGg"/>
        <phase duration="3"  state="rrryyyyyy"/>
        <phase duration="42" state="GGGGrrrrr"/>
        <phase duration="3"  state="yyyyrrrrr"/>
    </tlLogic>

    <junction id="J5" type="dead_end" x="-15.87" y="62.36" incLanes="-E2_0 -E2_1" intLanes="" shape="-15.87,62.36 -15.83,68.76 -15.87,62.36"/>
    <junction id="J6" type="traffic_light" x="70.08" y="61.80" incLanes="-E3_0 -E3_1 -E3_2 -E4_0 -E4_1 -E4_2 E2_0 E2_1" intLanes=":J6_0_0 :J6_0_1 :J6_2_0 :J6_3_0 :J6_4_0 :J6_4_1 :J6_6_0 :J6_6_1 :J6_9_0" shape="77.68,79.74 87.42,67.05 86.05,65.47 85.91,64.72 86.14,63.98 86.74,63.28 87.70,62.59 79.60,48.79 75.52,51.21 72.39,52.98 69.68,54.19 66.85,54.95 63.35,55.34 58.63,55.47 58.71,68.27 63.36,68.63 66.60,69.71 69.06,71.45 71.32,73.75 73.99,76.54">
        <request index="0" response="000110000" foes="000110000" cont="0"/>
        <request index="1" response="000110000" foes="000110000" cont="0"/>
        <request index="2" response="111110000" foes="111110000" cont="0"/>
        <request index="3" response="000000000" foes="000000000" cont="0"/>
        <request index="4" response="000000000" foes="100000111" cont="0"/>
        <request index="5" response="000000000" foes="100000111" cont="0"/>
        <request index="6" response="000000000" foes="000000100" cont="0"/>
        <request index="7" response="000000000" foes="000000100" cont="0"/>
        <request index="8" response="000110000" foes="000110100" cont="1"/>
    </junction>
    <junction id="J7" type="dead_end" x="101.54" y="85.96" incLanes="E3_0 E3_1" intLanes="" shape="101.54,85.96 105.44,80.88 101.54,85.96"/>
    <junction id="J8" type="dead_end" x="110.53" y="38.06" incLanes="E4_0 E4_1" intLanes="" shape="110.53,38.06 107.29,32.54 110.53,38.06"/>

    <junction id=":J6_9_0" type="internal" x="63.22" y="60.77" incLanes=":J6_8_0 -E4_1 -E4_2" intLanes=":J6_2_0 :J6_4_0 :J6_4_1"/>

    <connection from="-E3" to="-E2" fromLane="0" toLane="0" via=":J6_0_0" tl="J6" linkIndex="0" dir="s" state="o"/>
    <connection from="-E3" to="-E2" fromLane="1" toLane="1" via=":J6_0_1" tl="J6" linkIndex="1" dir="s" state="o"/>
    <connection from="-E3" to="E4" fromLane="2" toLane="1" via=":J6_2_0" tl="J6" linkIndex="2" dir="l" state="o"/>
    <connection from="-E4" to="E3" fromLane="0" toLane="0" via=":J6_3_0" tl="J6" linkIndex="3" dir="r" state="O"/>
    <connection from="-E4" to="-E2" fromLane="1" toLane="0" via=":J6_4_0" tl="J6" linkIndex="4" dir="s" state="O"/>
    <connection from="-E4" to="-E2" fromLane="2" toLane="1" via=":J6_4_1" tl="J6" linkIndex="5" dir="s" state="O"/>
    <connection from="E2" to="E4" fromLane="0" toLane="0" via=":J6_6_0" tl="J6" linkIndex="6" dir="s" state="O"/>
    <connection from="E2" to="E4" fromLane="1" toLane="1" via=":J6_6_1" tl="J6" linkIndex="7" dir="s" state="O"/>
    <connection from="E2" to="E3" fromLane="1" toLane="1" via=":J6_8_0" tl="J6" linkIndex="8" dir="L" state="o"/>

    <connection from=":J6_0" to="-E2" fromLane="0" toLane="0" dir="s" state="M"/>
    <connection from=":J6_0" to="-E2" fromLane="1" toLane="1" dir="s" state="M"/>
    <connection from=":J6_2" to="E4" fromLane="0" toLane="1" dir="l" state="M"/>
    <connection from=":J6_3" to="E3" fromLane="0" toLane="0" dir="r" state="M"/>
    <connection from=":J6_4" to="-E2" fromLane="0" toLane="0" dir="s" state="M"/>
    <connection from=":J6_4" to="-E2" fromLane="1" toLane="1" dir="s" state="M"/>
    <connection from=":J6_6" to="E4" fromLane="0" toLane="0" dir="s" state="M"/>
    <connection from=":J6_6" to="E4" fromLane="1" toLane="1" dir="s" state="M"/>
    <connection from=":J6_8" to="E3" fromLane="0" toLane="1" via=":J6_9_0" dir="L" state="m"/>
    <connection from=":J6_9" to="E3" fromLane="0" toLane="1" dir="L" state="M"/>

</net>
